# generated using pymatgen
data_Ti8Cu3Ni
_symmetry_space_group_name_H-M   'P 1'
_cell_length_a   2.94053347
_cell_length_b   2.94053347
_cell_length_c   20.84793083
_cell_angle_alpha   90.00000000
_cell_angle_beta   90.00000000
_cell_angle_gamma   90.00000000
_symmetry_Int_Tables_number   1
_chemical_formula_structural   Ti8Cu3Ni
_chemical_formula_sum   'Ti8 Cu3 Ni1'
_cell_volume   180.26657672
_cell_formula_units_Z   1
loop_
 _symmetry_equiv_pos_site_id
 _symmetry_equiv_pos_as_xyz
  1  'x, y, z'
loop_
 _atom_site_type_symbol
 _atom_site_label
 _atom_site_symmetry_multiplicity
 _atom_site_fract_x
 _atom_site_fract_y
 _atom_site_fract_z
 _atom_site_occupancy
  Ti  Ti0  1  0.50000000  0.50000000  0.07489446  1
  Ti  Ti1  1  -0.00000000  -0.00000000  0.32848624  1
  Ti  Ti2  1  0.50000000  0.50000000  0.58159574  1
  Ti  Ti3  1  0.00000000  -0.00000000  0.83548361  1
  Ti  Ti4  1  -0.00000000  0.00000000  0.16451639  1
  Ti  Ti5  1  0.50000000  0.50000000  0.41840426  1
  Ti  Ti6  1  0.00000000  0.00000000  0.67151376  1
  Ti  Ti7  1  0.50000000  0.50000000  0.92510554  1
  Cu  Cu8  1  0.50000000  0.50000000  0.24651084  1
  Cu  Cu9  1  -0.00000000  0.00000000  0.50000000  1
  Cu  Cu10  1  0.50000000  0.50000000  0.75348916  1
  Ni  Ni11  1  -0.00000000  0.00000000  0.00000000  1
