# generated using pymatgen
data_ZrScMnNi3
_symmetry_space_group_name_H-M   'P 1'
_cell_length_a   4.94620062
_cell_length_b   4.94620062
_cell_length_c   4.93594301
_cell_angle_alpha   59.93123162
_cell_angle_beta   120.06876838
_cell_angle_gamma   120.00000000
_symmetry_Int_Tables_number   1
_chemical_formula_structural   ZrScMnNi3
_chemical_formula_sum   'Zr1 Sc1 Mn1 Ni3'
_cell_volume   85.29948138
_cell_formula_units_Z   1
loop_
 _symmetry_equiv_pos_site_id
 _symmetry_equiv_pos_as_xyz
  1  'x, y, z'
loop_
 _atom_site_type_symbol
 _atom_site_label
 _atom_site_symmetry_multiplicity
 _atom_site_fract_x
 _atom_site_fract_y
 _atom_site_fract_z
 _atom_site_occupancy
  Zr  Zr0  1  0.99966300  0.00033700  0.99898900  1
  Sc  Sc1  1  0.25018200  0.74981800  0.75054600  1
  Mn  Mn2  1  0.62487500  0.37512500  0.87462400  1
  Ni  Ni3  1  0.62496800  0.37503200  0.37528000  1
  Ni  Ni4  1  0.62496800  0.87465500  0.37528000  1
  Ni  Ni5  1  0.12534500  0.37503200  0.37528000  1
