# generated using pymatgen
data_DyBO3
_symmetry_space_group_name_H-M   'P 1'
_cell_length_a   7.15524708
_cell_length_b   8.94494849
_cell_length_c   9.77578395
_cell_angle_alpha   81.33689321
_cell_angle_beta   85.63635558
_cell_angle_gamma   77.30150090
_symmetry_Int_Tables_number   1
_chemical_formula_structural   DyBO3
_chemical_formula_sum   'Dy12 B12 O36'
_cell_volume   602.81540835
_cell_formula_units_Z   12
loop_
 _symmetry_equiv_pos_site_id
 _symmetry_equiv_pos_as_xyz
  1  'x, y, z'
loop_
 _atom_site_type_symbol
 _atom_site_label
 _atom_site_symmetry_multiplicity
 _atom_site_fract_x
 _atom_site_fract_y
 _atom_site_fract_z
 _atom_site_occupancy
  Dy  Dy0  1  0.26134812  0.55942216  0.97301815  1
  Dy  Dy1  1  0.73865188  0.44057784  0.02698185  1
  Dy  Dy2  1  0.75054713  0.95510564  0.51997252  1
  Dy  Dy3  1  0.24945287  0.04489436  0.48002748  1
  Dy  Dy4  1  0.90114380  0.06867145  0.83706732  1
  Dy  Dy5  1  0.09885620  0.93132855  0.16293268  1
  Dy  Dy6  1  0.09927856  0.43515254  0.67047490  1
  Dy  Dy7  1  0.90072144  0.56484746  0.32952510  1
  Dy  Dy8  1  0.56549906  0.55884559  0.65791477  1
  Dy  Dy9  1  0.43450094  0.44115441  0.34208523  1
  Dy  Dy10  1  0.42609113  0.94330902  0.84445746  1
  Dy  Dy11  1  0.57390887  0.05669098  0.15554254  1
  B  B12  1  0.47789676  0.28457959  0.92212573  1
  B  B13  1  0.52210324  0.71542041  0.07787427  1
  B  B14  1  0.46708581  0.77905676  0.38529058  1
  B  B15  1  0.53291419  0.22094324  0.61470942  1
  B  B16  1  0.83266352  0.72869545  0.79359802  1
  B  B17  1  0.16733648  0.27130455  0.20640198  1
  B  B18  1  0.21922215  0.78285385  0.69205967  1
  B  B19  1  0.78077785  0.21714615  0.30794033  1
  B  B20  1  0.88355424  0.74354254  0.05126548  1
  B  B21  1  0.11644576  0.25645746  0.94873452  1
  B  B22  1  0.10815937  0.75253025  0.44802290  1
  B  B23  1  0.89184063  0.24746975  0.55197710  1
  O  O24  1  0.06312662  0.18512729  0.62972635  1
  O  O25  1  0.93687338  0.81487271  0.37027365  1
  O  O26  1  0.94344502  0.31915874  0.87325170  1
  O  O27  1  0.05655498  0.68084126  0.12674830  1
  O  O28  1  0.91891305  0.16186531  0.42723859  1
  O  O29  1  0.08108695  0.83813469  0.57276141  1
  O  O30  1  0.08258945  0.33428941  0.08079791  1
  O  O31  1  0.91741055  0.66571059  0.91920209  1
  O  O32  1  0.84956505  0.41181511  0.53441635  1
  O  O33  1  0.15043495  0.58818489  0.46558365  1
  O  O34  1  0.15341338  0.09104874  0.96480481  1
  O  O35  1  0.84658662  0.90895126  0.03519519  1
  O  O36  1  0.26931431  0.81679722  0.36432134  1
  O  O37  1  0.73068569  0.18320278  0.63567866  1
  O  O38  1  0.27300066  0.32262379  0.87289811  1
  O  O39  1  0.72699934  0.67737621  0.12710189  1
  O  O40  1  0.84459249  0.12618209  0.19639013  1
  O  O41  1  0.15540751  0.87381791  0.80360987  1
  O  O42  1  0.16660680  0.36817313  0.30204983  1
  O  O43  1  0.83339320  0.63182687  0.69795017  1
  O  O44  1  0.75506552  0.38287406  0.26300085  1
  O  O45  1  0.24493448  0.61712594  0.73699915  1
  O  O46  1  0.24558282  0.11676985  0.23944645  1
  O  O47  1  0.75441718  0.88323015  0.76055355  1
  O  O48  1  0.45250197  0.09483424  0.62635405  1
  O  O49  1  0.54749803  0.90516576  0.37364595  1
  O  O50  1  0.43343043  0.59515002  0.14976647  1
  O  O51  1  0.56656957  0.40484998  0.85023353  1
  O  O52  1  0.56638861  0.63174374  0.41547460  1
  O  O53  1  0.43361139  0.36825626  0.58452540  1
  O  O54  1  0.42875523  0.87238163  0.08777535  1
  O  O55  1  0.57124477  0.12761837  0.91222465  1
  O  O56  1  0.59219871  0.18584258  0.36723178  1
  O  O57  1  0.40780129  0.81415742  0.63276822  1
  O  O58  1  0.47291875  0.31150461  0.07158049  1
  O  O59  1  0.52708125  0.68849539  0.92841951  1
