# generated using pymatgen
data_Ce3PI3
_symmetry_space_group_name_H-M   'P 1'
_cell_length_a   10.77476596
_cell_length_b   10.75534013
_cell_length_c   10.75647677
_cell_angle_alpha   109.38775909
_cell_angle_beta   109.44416928
_cell_angle_gamma   109.43794273
_symmetry_Int_Tables_number   1
_chemical_formula_structural   Ce3PI3
_chemical_formula_sum   'Ce12 P4 I12'
_cell_volume   961.27656013
_cell_formula_units_Z   4
loop_
 _symmetry_equiv_pos_site_id
 _symmetry_equiv_pos_as_xyz
  1  'x, y, z'
loop_
 _atom_site_type_symbol
 _atom_site_label
 _atom_site_symmetry_multiplicity
 _atom_site_fract_x
 _atom_site_fract_y
 _atom_site_fract_z
 _atom_site_occupancy
  Ce  Ce0  1  0.46299084  0.48129586  0.23140070  1
  Ce  Ce1  1  0.75006361  0.23149707  0.26868219  1
  Ce  Ce2  1  0.74999419  0.01802574  0.48190468  1
  Ce  Ce3  1  0.23175766  0.46339287  0.48149428  1
  Ce  Ce4  1  0.26763664  0.74938588  0.23118169  1
  Ce  Ce5  1  0.03699865  0.26862820  0.01864851  1
  Ce  Ce6  1  0.01854467  0.03698786  0.26867459  1
  Ce  Ce7  1  0.48086109  0.74944306  0.01763218  1
  Ce  Ce8  1  0.48128555  0.23159266  0.46293195  1
  Ce  Ce9  1  0.01910934  0.48220979  0.75054456  1
  Ce  Ce10  1  0.26850065  0.01836524  0.03677698  1
  Ce  Ce11  1  0.23215963  0.26873990  0.75040128  1
  P  P12  1  0.24990917  0.24980511  0.25001408  1
  P  P13  1  0.49991871  -0.00038921  0.24963434  1
  P  P14  1  0.00018449  0.25049867  0.50052273  1
  P  P15  1  0.25006126  0.50000014  0.00007090  1
  I  I16  1  0.25002578  0.75933453  0.74068296  1
  I  I17  1  0.51818175  0.50892347  0.75895323  1
  I  I18  1  0.98151270  0.74079348  0.99063715  1
  I  I19  1  0.74091707  0.25031920  0.75919799  1
  I  I20  1  0.99050044  0.98129785  0.74023177  1
  I  I21  1  0.25008566  0.99071562  0.50955393  1
  I  I22  1  0.75921568  0.51840099  0.50924375  1
  I  I23  1  0.50948896  0.24995401  0.99067699  1
  I  I24  1  0.75913345  0.74077830  0.24975717  1
  I  I25  1  0.74084412  0.99076335  0.98171277  1
  I  I26  1  0.99047331  0.50930851  0.25002757  1
  I  I27  1  0.50964696  0.75993084  0.51880908  1
