# generated using pymatgen
data_Rb5Dy3Br12
_symmetry_space_group_name_H-M   'P 1'
_cell_length_a   4.08214919
_cell_length_b   14.18679750
_cell_length_c   14.18309527
_cell_angle_alpha   120.00881051
_cell_angle_beta   89.99903903
_cell_angle_gamma   89.99933651
_symmetry_Int_Tables_number   1
_chemical_formula_structural   Rb5Dy3Br12
_chemical_formula_sum   'Rb5 Dy3 Br12'
_cell_volume   711.27301171
_cell_formula_units_Z   1
loop_
 _symmetry_equiv_pos_site_id
 _symmetry_equiv_pos_as_xyz
  1  'x, y, z'
loop_
 _atom_site_type_symbol
 _atom_site_label
 _atom_site_symmetry_multiplicity
 _atom_site_fract_x
 _atom_site_fract_y
 _atom_site_fract_z
 _atom_site_occupancy
  Rb  Rb0  1  -0.00005203  0.66653176  0.33323214  1
  Rb  Rb1  1  -0.00004639  0.33316765  0.66661398  1
  Rb  Rb2  1  -0.00004897  0.27445773  0.27448080  1
  Rb  Rb3  1  -0.00002026  -0.00005083  0.72543128  1
  Rb  Rb4  1  -0.00006405  0.72535946  -0.00001347  1
  Dy  Dy5  1  0.49995864  0.66360602  0.66366899  1
  Dy  Dy6  1  0.50001570  -0.00012285  0.33645860  1
  Dy  Dy7  1  0.50010849  0.33675772  -0.00004785  1
  Br  Br8  1  0.99997661  0.80986855  0.80979800  1
  Br  Br9  1  0.00005067  -0.00003816  0.19019334  1
  Br  Br10  1  0.00022706  0.19062709  -0.00002807  1
  Br  Br11  1  -0.00004599  0.52064705  0.52072870  1
  Br  Br12  1  0.00000031  -0.00028375  0.47948216  1
  Br  Br13  1  0.00011467  0.47980704  0.00003760  1
  Br  Br14  1  0.49998167  0.77128683  0.21364699  1
  Br  Br15  1  0.50001127  0.44230326  0.22865554  1
  Br  Br16  1  0.49995374  0.55768816  0.78636509  1
  Br  Br17  1  0.49996365  0.78622362  0.55767257  1
  Br  Br18  1  0.49996727  0.21358175  0.77130077  1
  Br  Br19  1  0.49994695  0.22858292  0.44232383  1
