# generated using pymatgen
data_MgTi8(NiO3)8
_symmetry_space_group_name_H-M   'P 1'
_cell_length_a   5.60230421
_cell_length_b   11.36359179
_cell_length_c   11.00591115
_cell_angle_alpha   54.64717001
_cell_angle_beta   55.54605683
_cell_angle_gamma   54.19531307
_symmetry_Int_Tables_number   1
_chemical_formula_structural   MgTi8(NiO3)8
_chemical_formula_sum   'Mg1 Ti8 Ni8 O24'
_cell_volume   435.25742527
_cell_formula_units_Z   1
loop_
 _symmetry_equiv_pos_site_id
 _symmetry_equiv_pos_as_xyz
  1  'x, y, z'
loop_
 _atom_site_type_symbol
 _atom_site_label
 _atom_site_symmetry_multiplicity
 _atom_site_fract_x
 _atom_site_fract_y
 _atom_site_fract_z
 _atom_site_occupancy
  Mg  Mg0  1  0.40415700  0.40541400  0.83691100  1
  Ti  Ti1  1  0.32631100  0.18057900  0.17891600  1
  Ti  Ti2  1  0.14963800  0.05448800  0.58529700  1
  Ti  Ti3  1  0.10572700  0.58674900  0.08426200  1
  Ti  Ti4  1  0.15246400  0.57842500  0.56194900  1
  Ti  Ti5  1  0.87163100  0.42156000  0.42754700  1
  Ti  Ti6  1  0.79010900  0.44934300  0.92798400  1
  Ti  Ti7  1  0.87446300  0.92968600  0.40833700  1
  Ti  Ti8  1  0.79656000  0.93006400  0.94019800  1
  Ni  Ni9  1  0.11648900  0.07967200  0.07547500  1
  Ni  Ni10  1  0.32260500  0.68416800  0.17737100  1
  Ni  Ni11  1  0.45871400  0.14638100  0.64967400  1
  Ni  Ni12  1  0.63867600  0.33287400  0.32377100  1
  Ni  Ni13  1  0.35557400  0.69394900  0.65796500  1
  Ni  Ni14  1  0.94103300  0.23638400  0.80969400  1
  Ni  Ni15  1  0.64948100  0.82651900  0.32265600  1
  Ni  Ni16  1  0.62425800  0.82013500  0.83143400  1
  O  O17  1  0.05604400  0.38117900  0.21392100  1
  O  O18  1  0.42359700  0.03878700  0.37247000  1
  O  O19  1  0.68109900  0.23396800  0.03042100  1
  O  O20  1  0.23157500  0.28358700  0.48084900  1
  O  O21  1  0.53040700  0.48175700  0.12048300  1
  O  O22  1  0.05999400  0.40390400  0.71872000  1
  O  O23  1  0.03229900  0.88140400  0.22815800  1
  O  O24  1  0.93089000  0.11818700  0.29279000  1
  O  O25  1  0.44171200  0.01945400  0.87426600  1
  O  O26  1  0.43443400  0.52748100  0.38224100  1
  O  O27  1  0.79720800  0.22206200  0.51456400  1
  O  O28  1  0.73741200  0.72369800  0.03297000  1
  O  O29  1  0.14811000  0.28604400  0.99875500  1
  O  O30  1  0.22803300  0.78513700  0.46874800  1
  O  O31  1  0.55954500  0.48801900  0.60489900  1
  O  O32  1  0.53996400  0.98619400  0.11776800  1
  O  O33  1  0.04149100  0.88565100  0.70791400  1
  O  O34  1  0.92883600  0.09420900  0.78143500  1
  O  O35  1  0.92576200  0.61837400  0.28527200  1
  O  O36  1  0.41177100  0.55004600  0.88017000  1
  O  O37  1  0.76886400  0.72449100  0.52428900  1
  O  O38  1  0.19489600  0.78306600  0.97865700  1
  O  O39  1  0.55587200  0.96539400  0.61178600  1
  O  O40  1  0.95280100  0.60795000  0.79450100  1
