# generated using pymatgen
data_Ca3SiO
_symmetry_space_group_name_H-M   'P 1'
_cell_length_a   6.65098862
_cell_length_b   6.67173224
_cell_length_c   9.40885366
_cell_angle_alpha   90.00000000
_cell_angle_beta   90.00000000
_cell_angle_gamma   90.00000000
_symmetry_Int_Tables_number   1
_chemical_formula_structural   Ca3SiO
_chemical_formula_sum   'Ca12 Si4 O4'
_cell_volume   417.50485182
_cell_formula_units_Z   4
loop_
 _symmetry_equiv_pos_site_id
 _symmetry_equiv_pos_as_xyz
  1  'x, y, z'
loop_
 _atom_site_type_symbol
 _atom_site_label
 _atom_site_symmetry_multiplicity
 _atom_site_fract_x
 _atom_site_fract_y
 _atom_site_fract_z
 _atom_site_occupancy
  Ca  Ca0  1  0.25698143  0.25696155  0.48303883  1
  Ca  Ca1  1  0.74301857  0.74303845  0.98303883  1
  Ca  Ca2  1  0.75698143  0.24303845  0.01696117  1
  Ca  Ca3  1  0.50044816  0.03353557  0.75000000  1
  Ca  Ca4  1  0.99955184  0.53353557  0.25000000  1
  Ca  Ca5  1  0.00044816  0.46646443  0.75000000  1
  Ca  Ca6  1  0.49955184  0.96646443  0.25000000  1
  Ca  Ca7  1  0.75698143  0.24303845  0.48303883  1
  Ca  Ca8  1  0.74301857  0.74303845  0.51696117  1
  Ca  Ca9  1  0.25698143  0.25696155  0.01696117  1
  Ca  Ca10  1  0.24301857  0.75696155  0.98303883  1
  Ca  Ca11  1  0.24301857  0.75696155  0.51696117  1
  Si  Si12  1  0.99744240  0.99950441  0.75000000  1
  Si  Si13  1  0.50255760  0.49950441  0.25000000  1
  Si  Si14  1  0.49744240  0.50049559  0.75000000  1
  Si  Si15  1  0.00255760  0.00049559  0.25000000  1
  O  O16  1  0.00000000  0.50000000  0.50000000  1
  O  O17  1  0.50000000  -0.00000000  0.50000000  1
  O  O18  1  0.50000000  -0.00000000  -0.00000000  1
  O  O19  1  0.00000000  0.50000000  -0.00000000  1
