# generated using pymatgen
data_MgMnTl(VS2)4
_symmetry_space_group_name_H-M   'P 1'
_cell_length_a   3.46080966
_cell_length_b   9.00328528
_cell_length_c   9.32848089
_cell_angle_alpha   104.63110982
_cell_angle_beta   100.67630869
_cell_angle_gamma   89.93583078
_symmetry_Int_Tables_number   1
_chemical_formula_structural   MgMnTl(VS2)4
_chemical_formula_sum   'Mg1 Mn1 Tl1 V4 S8'
_cell_volume   276.04993096
_cell_formula_units_Z   1
loop_
 _symmetry_equiv_pos_site_id
 _symmetry_equiv_pos_as_xyz
  1  'x, y, z'
loop_
 _atom_site_type_symbol
 _atom_site_label
 _atom_site_symmetry_multiplicity
 _atom_site_fract_x
 _atom_site_fract_y
 _atom_site_fract_z
 _atom_site_occupancy
  Mg  Mg0  1  0.95670800  0.17214000  0.91302900  1
  Mn  Mn1  1  0.00267400  0.51784500  0.00561700  1
  Tl  Tl2  1  0.52482100  0.94570000  0.04694800  1
  V  V3  1  0.70233500  0.82452200  0.40625200  1
  V  V4  1  0.28845700  0.17442800  0.57724900  1
  V  V5  1  0.66386800  0.49972400  0.32618800  1
  V  V6  1  0.33463300  0.51689200  0.66759300  1
  S  S7  1  0.82565200  0.01560400  0.65115100  1
  S  S8  1  0.16963400  0.98564200  0.34070400  1
  S  S9  1  0.75500000  0.34237500  0.50922600  1
  S  S10  1  0.24036700  0.66242200  0.48127500  1
  S  S11  1  0.90830600  0.66045200  0.81732100  1
  S  S12  1  0.08800600  0.34572300  0.17459700  1
  S  S13  1  0.57685300  0.66790000  0.15484500  1
  S  S14  1  0.42102000  0.34050700  0.84229200  1
