# generated using pymatgen
data_K4Cu4Cl10O
_symmetry_space_group_name_H-M   'P 1'
_cell_length_a   10.44791895
_cell_length_b   10.44787867
_cell_length_c   8.91236968
_cell_angle_alpha   80.20857478
_cell_angle_beta   80.20817912
_cell_angle_gamma   90.86900578
_symmetry_Int_Tables_number   1
_chemical_formula_structural   K4Cu4Cl10O
_chemical_formula_sum   'K8 Cu8 Cl20 O2'
_cell_volume   943.75016071
_cell_formula_units_Z   2
loop_
 _symmetry_equiv_pos_site_id
 _symmetry_equiv_pos_as_xyz
  1  'x, y, z'
loop_
 _atom_site_type_symbol
 _atom_site_label
 _atom_site_symmetry_multiplicity
 _atom_site_fract_x
 _atom_site_fract_y
 _atom_site_fract_z
 _atom_site_occupancy
  K  K0  1  0.29353462  0.44585121  0.13280845  1
  K  K1  1  0.71168085  0.97014260  0.87676105  1
  K  K2  1  0.97014779  0.71168517  0.37675852  1
  K  K3  1  0.55417284  0.70647845  0.36719185  1
  K  K4  1  0.44582716  0.29352155  0.63280815  1
  K  K5  1  0.02985221  0.28831483  0.62324148  1
  K  K6  1  0.70646538  0.55414879  0.86719155  1
  K  K7  1  0.28831915  0.02985740  0.12323895  1
  Cu  Cu8  1  0.95046134  0.23308552  0.11601832  1
  Cu  Cu9  1  0.04953866  0.76691448  0.88398168  1
  Cu  Cu10  1  0.64461190  0.23229948  0.13140856  1
  Cu  Cu11  1  0.76770152  0.35539110  0.36859008  1
  Cu  Cu12  1  0.23229848  0.64460890  0.63140992  1
  Cu  Cu13  1  0.35538810  0.76770052  0.86859144  1
  Cu  Cu14  1  0.76691397  0.04953980  0.38398490  1
  Cu  Cu15  1  0.23308603  0.95046020  0.61601510  1
  Cl  Cl16  1  0.14443363  0.26498140  0.95842144  1
  Cl  Cl17  1  0.97910397  0.02089656  0.24999969  1
  Cl  Cl18  1  0.73501777  0.85556983  0.54157966  1
  Cl  Cl19  1  0.40083722  0.99029546  0.77478685  1
  Cl  Cl20  1  0.26203275  0.49438649  0.47807796  1
  Cl  Cl21  1  0.00970422  0.59916313  0.72521407  1
  Cl  Cl22  1  0.82581268  0.27491179  0.91720271  1
  Cl  Cl23  1  0.41526753  0.58473188  0.74999837  1
  Cl  Cl24  1  0.49439196  0.26204142  0.97807851  1
  Cl  Cl25  1  0.02089603  0.97910344  0.75000031  1
  Cl  Cl26  1  0.27491422  0.82581014  0.41720109  1
  Cl  Cl27  1  0.99029578  0.40083687  0.27478593  1
  Cl  Cl28  1  0.85556637  0.73501860  0.04157856  1
  Cl  Cl29  1  0.73796725  0.50561351  0.52192204  1
  Cl  Cl30  1  0.59916278  0.00970454  0.22521315  1
  Cl  Cl31  1  0.72508578  0.17418986  0.58279891  1
  Cl  Cl32  1  0.17418732  0.72508821  0.08279729  1
  Cl  Cl33  1  0.58473247  0.41526812  0.25000163  1
  Cl  Cl34  1  0.26498223  0.14443017  0.45842034  1
  Cl  Cl35  1  0.50560804  0.73795858  0.02192149  1
  O  O36  1  0.21720534  0.78279364  0.75000008  1
  O  O37  1  0.78279466  0.21720636  0.24999992  1
