# generated using pymatgen
data_EuMgPd
_symmetry_space_group_name_H-M   'P 1'
_cell_length_a   4.35516488
_cell_length_b   7.46952122
_cell_length_c   8.66574059
_cell_angle_alpha   90.07110999
_cell_angle_beta   90.00000000
_cell_angle_gamma   90.00000000
_symmetry_Int_Tables_number   1
_chemical_formula_structural   EuMgPd
_chemical_formula_sum   'Eu4 Mg4 Pd4'
_cell_volume   281.90495974
_cell_formula_units_Z   4
loop_
 _symmetry_equiv_pos_site_id
 _symmetry_equiv_pos_as_xyz
  1  'x, y, z'
loop_
 _atom_site_type_symbol
 _atom_site_label
 _atom_site_symmetry_multiplicity
 _atom_site_fract_x
 _atom_site_fract_y
 _atom_site_fract_z
 _atom_site_occupancy
  Eu  Eu0  1  0.25000000  0.03293150  0.32230494  1
  Eu  Eu1  1  0.25000000  0.53259534  0.17645171  1
  Eu  Eu2  1  0.75000000  0.96781959  0.67817545  1
  Eu  Eu3  1  0.75000000  0.46682245  0.82328102  1
  Mg  Mg4  1  0.25000000  0.13451119  0.94064477  1
  Mg  Mg5  1  0.25000000  0.63637535  0.55928560  1
  Mg  Mg6  1  0.75000000  0.86322994  0.05952845  1
  Mg  Mg7  1  0.75000000  0.36544134  0.44063966  1
  Pd  Pd8  1  0.25000000  0.27184822  0.62377821  1
  Pd  Pd9  1  0.25000000  0.77118912  0.87608065  1
  Pd  Pd10  1  0.75000000  0.72902262  0.37601579  1
  Pd  Pd11  1  0.75000000  0.22821235  0.12381375  1
