# generated using pymatgen
data_MgV2S4(N3Cl2)2
_symmetry_space_group_name_H-M   'P 1'
_cell_length_a   5.74111347
_cell_length_b   7.11195115
_cell_length_c   8.56930191
_cell_angle_alpha   89.88857965
_cell_angle_beta   101.95064819
_cell_angle_gamma   95.51447155
_symmetry_Int_Tables_number   1
_chemical_formula_structural   MgV2S4(N3Cl2)2
_chemical_formula_sum   'Mg1 V2 S4 N6 Cl4'
_cell_volume   340.66353802
_cell_formula_units_Z   1
loop_
 _symmetry_equiv_pos_site_id
 _symmetry_equiv_pos_as_xyz
  1  'x, y, z'
loop_
 _atom_site_type_symbol
 _atom_site_label
 _atom_site_symmetry_multiplicity
 _atom_site_fract_x
 _atom_site_fract_y
 _atom_site_fract_z
 _atom_site_occupancy
  Mg  Mg0  1  0.70648160  0.40912695  0.01516498  1
  V  V1  1  0.76143251  0.85544236  0.01119816  1
  V  V2  1  0.20139501  0.11637517  0.98297241  1
  S  S3  1  0.77069694  0.63765254  0.33251696  1
  S  S4  1  0.82029317  0.13694356  0.66878440  1
  S  S5  1  0.27662884  0.36833822  0.69744626  1
  S  S6  1  0.19334232  0.88465130  0.31361870  1
  N  N7  1  0.01855691  0.28060966  0.61039732  1
  N  N8  1  0.07824765  0.92457478  0.13187122  1
  N  N9  1  0.03104142  0.74381299  0.40079587  1
  N  N10  1  0.68156819  0.67624119  0.14703727  1
  N  N11  1  0.37018644  0.30045709  0.87211491  1
  N  N12  1  0.91669960  0.08242972  0.85197566  1
  Cl  Cl13  1  0.37384502  0.87932893  0.84016859  1
  Cl  Cl14  1  0.12463138  0.37161696  0.14782391  1
  Cl  Cl15  1  0.62151589  0.11200260  0.16970255  1
  Cl  Cl16  1  0.82427010  0.62872899  0.82203585  1
