# generated using pymatgen
data_Na10Zn4Si5Ge4S7O48
_symmetry_space_group_name_H-M   'P 1'
_cell_length_a   17.65813342
_cell_length_b   8.83634588
_cell_length_c   22.00591884
_cell_angle_alpha   89.46273564
_cell_angle_beta   89.91492092
_cell_angle_gamma   119.86351575
_symmetry_Int_Tables_number   1
_chemical_formula_structural   Na10Zn4Si5Ge4S7O48
_chemical_formula_sum   'Na30 Zn12 Si15 Ge12 S21 O144'
_cell_volume   2977.51018678
_cell_formula_units_Z   3
loop_
 _symmetry_equiv_pos_site_id
 _symmetry_equiv_pos_as_xyz
  1  'x, y, z'
loop_
 _atom_site_type_symbol
 _atom_site_label
 _atom_site_symmetry_multiplicity
 _atom_site_fract_x
 _atom_site_fract_y
 _atom_site_fract_z
 _atom_site_occupancy
  Na  Na0  1  0.32318130  0.01935774  0.25146776  1
  Na  Na1  1  0.68138590  0.35314138  0.25416744  1
  Na  Na2  1  0.99772540  0.63260623  0.24357877  1
  Na  Na3  1  0.49765611  0.63021887  0.24203651  1
  Na  Na4  1  0.32074460  0.62363522  0.75354716  1
  Na  Na5  1  0.82078673  0.62340030  0.75265763  1
  Na  Na6  1  0.99672612  0.36477874  0.74236121  1
  Na  Na7  1  0.49685855  0.36463395  0.74236940  1
  Na  Na8  1  0.18094642  0.01042548  0.75312643  1
  Na  Na9  1  0.68157883  0.01086667  0.75254339  1
  Na  Na10  1  0.33365753  0.96650532  0.57642140  1
  Na  Na11  1  0.83333657  0.96592790  0.57547755  1
  Na  Na12  1  0.33352374  0.70118108  0.07657942  1
  Na  Na13  1  0.83206639  0.69895870  0.07546932  1
  Na  Na14  1  0.48283464  0.67792595  0.91260642  1
  Na  Na15  1  0.98304466  0.67842873  0.91191961  1
  Na  Na16  1  0.48580813  0.29052620  0.41073510  1
  Na  Na17  1  0.16480577  0.02949176  0.41036406  1
  Na  Na18  1  0.99015393  -0.00001085  0.49600860  1
  Na  Na19  1  0.50124538  0.99370536  0.49622932  1
  Na  Na20  1  0.99880151  0.00586717  0.99491495  1
  Na  Na21  1  0.49806668  0.00472084  0.99632889  1
  Na  Na22  1  0.32725238  0.33469725  0.83214384  1
  Na  Na23  1  0.82754008  0.33538445  0.83150895  1
  Na  Na24  1  0.32856798  0.33216945  0.32718999  1
  Na  Na25  1  0.82470782  0.30277949  0.33299002  1
  Na  Na26  1  0.15703738  0.65996738  0.16134274  1
  Na  Na27  1  0.65815474  0.67669098  0.16200540  1
  Na  Na28  1  0.15378938  0.64209285  0.66071893  1
  Na  Na29  1  0.65548161  0.64375785  0.65979505  1
  Zn  Zn30  1  0.99532561  0.00304312  0.35248121  1
  Zn  Zn31  1  0.50172851  0.00581288  0.34978415  1
  Zn  Zn32  1  0.99883921  0.99238995  0.85061365  1
  Zn  Zn33  1  0.49850931  0.99229693  0.85077423  1
  Zn  Zn34  1  0.34051313  0.34997701  0.68433665  1
  Zn  Zn35  1  0.84065940  0.35136382  0.68335962  1
  Zn  Zn36  1  0.33733332  0.33037670  0.18541244  1
  Zn  Zn37  1  0.83544098  0.32283028  0.18349909  1
  Zn  Zn38  1  0.16431427  0.66961766  0.01790689  1
  Zn  Zn39  1  0.66360271  0.66885795  0.01769714  1
  Zn  Zn40  1  0.16289348  0.65429069  0.51830776  1
  Zn  Zn41  1  0.66707746  0.65995488  0.51687678  1
  Si  Si42  1  0.14563416  0.00249518  0.25561445  1
  Si  Si43  1  0.65056355  0.00495392  0.25289584  1
  Si  Si44  1  0.50341856  0.29342834  0.25215837  1
  Si  Si45  1  0.14630551  0.29131066  0.75287688  1
  Si  Si46  1  0.64685865  0.29221706  0.75330537  1
  Si  Si47  1  0.00266533  0.71340431  0.75233931  1
  Si  Si48  1  0.50291525  0.71385454  0.75239781  1
  Si  Si49  1  0.48519465  0.33221942  0.58683838  1
  Si  Si50  1  0.98325364  0.33131565  0.58707438  1
  Si  Si51  1  0.48349761  0.63542433  0.08690722  1
  Si  Si52  1  0.98202603  0.62542635  0.08662574  1
  Si  Si53  1  0.31021757  0.66907167  0.92056520  1
  Si  Si54  1  0.81031434  0.66989924  0.92039414  1
  Si  Si55  1  0.31430034  0.95657386  0.42247105  1
  Si  Si56  1  0.81142315  0.95295228  0.41921331  1
  Ge  Ge57  1  0.01370429  0.02478480  0.65050915  1
  Ge  Ge58  1  0.51711256  0.02853686  0.65042372  1
  Ge  Ge59  1  0.00810403  0.98643464  0.14756711  1
  Ge  Ge60  1  0.51534492  0.00466354  0.15085982  1
  Ge  Ge61  1  0.33282262  0.35681222  0.98481552  1
  Ge  Ge62  1  0.83287287  0.35522387  0.98287070  1
  Ge  Ge63  1  0.34085771  0.32334597  0.48432407  1
  Ge  Ge64  1  0.83611887  0.30474024  0.48154985  1
  Ge  Ge65  1  0.17031634  0.68620978  0.31876472  1
  Ge  Ge66  1  0.66819169  0.68606832  0.31235805  1
  Ge  Ge67  1  0.16323635  0.64624141  0.81427416  1
  Ge  Ge68  1  0.66317017  0.64591804  0.81427657  1
  S  S69  1  0.34907490  0.70677748  0.25161048  1
  S  S70  1  0.85334946  0.71415399  0.24956632  1
  S  S71  1  0.00441658  0.29238067  0.24968118  1
  S  S72  1  0.35198916  0.99335309  0.75005471  1
  S  S73  1  0.85201528  0.99357793  0.75035457  1
  S  S74  1  0.18548941  0.04563801  0.58414000  1
  S  S75  1  0.68597427  0.04544584  0.58470829  1
  S  S76  1  0.33603360  0.62382891  0.58211003  1
  S  S77  1  0.83636951  0.62497305  0.58228171  1
  S  S78  1  0.33578006  0.04925955  0.08265369  1
  S  S79  1  0.83738235  0.04893583  0.08303114  1
  S  S80  1  0.18457215  0.32372548  0.08584162  1
  S  S81  1  0.68500576  0.32610833  0.08425243  1
  S  S82  1  0.01757395  0.37056292  0.91816716  1
  S  S83  1  0.51746814  0.37024096  0.91805848  1
  S  S84  1  0.17267775  0.96821203  0.91775887  1
  S  S85  1  0.67285735  0.96874081  0.91779926  1
  S  S86  1  0.17043661  0.38176642  0.41692489  1
  S  S87  1  0.67339617  0.37711802  0.41777476  1
  S  S88  1  0.01648046  0.65659141  0.41765277  1
  S  S89  1  0.51794052  0.66454000  0.41793270  1
  O  O90  1  0.10087895  0.01791481  0.31603638  1
  O  O91  1  0.60551469  0.03754180  0.30963600  1
  O  O92  1  0.40313648  0.78471180  0.30469528  1
  O  O93  1  0.90862910  0.79423008  0.30153934  1
  O  O94  1  0.47917709  0.17671597  0.31231506  1
  O  O95  1  0.99169253  0.19077210  0.30439728  1
  O  O96  1  0.10281240  0.17041150  0.81033870  1
  O  O97  1  0.60250443  0.16999142  0.81027434  1
  O  O98  1  0.47925189  0.78073849  0.81223658  1
  O  O99  1  0.97939941  0.78076001  0.81230796  1
  O  O100  1  0.40608026  0.02672552  0.80336363  1
  O  O101  1  0.90613382  0.02663754  0.80361728  1
  O  O102  1  0.39079193  0.96047895  0.69393659  1
  O  O103  1  0.89087187  0.96029749  0.69416801  1
  O  O104  1  0.08179240  0.21768440  0.69164779  1
  O  O105  1  0.58246877  0.22046787  0.69185581  1
  O  O106  1  0.02344971  0.85175974  0.69152595  1
  O  O107  1  0.52320918  0.85170677  0.69129692  1
  O  O108  1  0.38627597  0.81913910  0.19497883  1
  O  O109  1  0.89135918  0.82175055  0.19109939  1
  O  O110  1  0.01659932  0.21032647  0.19278788  1
  O  O111  1  0.52255455  0.19411734  0.19164235  1
  O  O112  1  0.07817762  0.94956316  0.19519147  1
  O  O113  1  0.58423668  0.94879343  0.19163859  1
  O  O114  1  0.43786748  0.34581135  0.64628382  1
  O  O115  1  0.93906789  0.34635579  0.64800001  1
  O  O116  1  0.23744137  0.12733771  0.63805420  1
  O  O117  1  0.73591295  0.12371633  0.63980839  1
  O  O118  1  0.32216964  0.52461189  0.63854565  1
  O  O119  1  0.82268766  0.52772525  0.63959069  1
  O  O120  1  0.43685502  0.52752800  0.14676387  1
  O  O121  1  0.93638242  0.52229532  0.14799373  1
  O  O122  1  0.32279970  0.12088756  0.13873018  1
  O  O123  1  0.82338303  0.12185413  0.13779205  1
  O  O124  1  0.23802321  0.34620509  0.13852619  1
  O  O125  1  0.73651091  0.35010010  0.13884440  1
  O  O126  1  0.22192956  0.28901730  0.02821486  1
  O  O127  1  0.72609956  0.29399227  0.02828563  1
  O  O128  1  0.41506656  0.54605150  0.02533838  1
  O  O129  1  0.91403604  0.53890699  0.02572415  1
  O  O130  1  0.34624490  0.16323284  0.02675089  1
  O  O131  1  0.84907151  0.15901097  0.02655159  1
  O  O132  1  0.22632045  0.15578021  0.52634051  1
  O  O133  1  0.72666155  0.15852243  0.52856243  1
  O  O134  1  0.34675499  0.53152961  0.52645741  1
  O  O135  1  0.84661210  0.53402946  0.52796162  1
  O  O136  1  0.41712494  0.28418364  0.52535541  1
  O  O137  1  0.91259963  0.28151063  0.52794484  1
  O  O138  1  0.26635085  0.68196411  0.98179803  1
  O  O139  1  0.76624029  0.68229755  0.98163207  1
  O  O140  1  0.07050736  0.45507082  0.97061721  1
  O  O141  1  0.57075796  0.45474229  0.97040547  1
  O  O142  1  0.15635074  0.85336392  0.97001539  1
  O  O143  1  0.65713795  0.85465497  0.97004119  1
  O  O144  1  0.26508479  0.85033958  0.48192506  1
  O  O145  1  0.77025604  0.85417201  0.48209270  1
  O  O146  1  0.15757691  0.45791841  0.47084670  1
  O  O147  1  0.65613977  0.45836576  0.46926680  1
  O  O148  1  0.07288152  0.68437491  0.46917704  1
  O  O149  1  0.56963302  0.68412566  0.47119932  1
  O  O150  1  0.05517937  0.62437186  0.35892652  1
  O  O151  1  0.55375521  0.62242032  0.36085459  1
  O  O152  1  0.24936989  0.87535762  0.35990024  1
  O  O153  1  0.74533655  0.85709766  0.35877072  1
  O  O154  1  0.18285834  0.49273340  0.35926544  1
  O  O155  1  0.68471400  0.47886450  0.35918925  1
  O  O156  1  0.05500805  0.48718896  0.85991240  1
  O  O157  1  0.55513638  0.48745182  0.85972469  1
  O  O158  1  0.18450941  0.88950390  0.85975704  1
  O  O159  1  0.68508801  0.89122111  0.85984586  1
  O  O160  1  0.24862754  0.63618333  0.85690074  1
  O  O161  1  0.74853683  0.63666976  0.85698588  1
  O  O162  1  0.00851723  0.81316033  0.41101605  1
  O  O163  1  0.50493838  0.81269293  0.40989393  1
  O  O164  1  0.41197159  0.99111410  0.41623876  1
  O  O165  1  0.90859243  0.98426684  0.41059447  1
  O  O166  1  0.09595630  0.20391524  0.41151016  1
  O  O167  1  0.59681427  0.20057996  0.41415761  1
  O  O168  1  0.00705660  0.19889269  0.91017188  1
  O  O169  1  0.50719383  0.19869561  0.91001496  1
  O  O170  1  0.09580989  0.99101900  0.91386718  1
  O  O171  1  0.59621763  0.99193398  0.91391797  1
  O  O172  1  0.40902614  0.83030491  0.91459305  1
  O  O173  1  0.90916226  0.83096874  0.91472655  1
  O  O174  1  0.48420743  0.13476183  0.59105513  1
  O  O175  1  0.98381593  0.13564362  0.59100258  1
  O  O176  1  0.09702496  0.03181594  0.58554381  1
  O  O177  1  0.59694220  0.03177288  0.58611736  1
  O  O178  1  0.41699980  0.79751599  0.58317133  1
  O  O179  1  0.91739383  0.80129577  0.58445534  1
  O  O180  1  0.48384105  0.83303536  0.09157899  1
  O  O181  1  0.98327570  0.82355385  0.08887280  1
  O  O182  1  0.41695181  0.03611584  0.08379628  1
  O  O183  1  0.92031612  0.03610511  0.08619563  1
  O  O184  1  0.09415279  0.16182968  0.08924526  1
  O  O185  1  0.59684343  0.16311958  0.08604081  1
  O  O186  1  0.33630695  0.14164364  0.74350062  1
  O  O187  1  0.83641451  0.14167159  0.74370033  1
  O  O188  1  0.24266686  0.31658331  0.74301839  1
  O  O189  1  0.74286570  0.31660851  0.74326671  1
  O  O190  1  0.42297487  0.51770680  0.74540391  1
  O  O191  1  0.92263842  0.51745587  0.74566290  1
  O  O192  1  0.33617722  0.53150023  0.24462363  1
  O  O193  1  0.84185510  0.53734039  0.24437056  1
  O  O194  1  0.42315974  0.32965184  0.24525153  1
  O  O195  1  0.92921532  0.32177112  0.24500522  1
  O  O196  1  0.24315145  0.15874924  0.24486245  1
  O  O197  1  0.74446637  0.17800342  0.24320089  1
  O  O198  1  0.32038496  0.48233236  0.92288429  1
  O  O199  1  0.82076445  0.48372418  0.92230288  1
  O  O200  1  0.42942049  0.36189970  0.92157608  1
  O  O201  1  0.92920260  0.36211753  0.92150436  1
  O  O202  1  0.25573761  0.14181234  0.92309957  1
  O  O203  1  0.75641413  0.14336550  0.92334315  1
  O  O204  1  0.31873637  0.16008129  0.42399660  1
  O  O205  1  0.81770012  0.15389078  0.42169946  1
  O  O206  1  0.25264138  0.36795652  0.41954864  1
  O  O207  1  0.75684142  0.37030307  0.42365073  1
  O  O208  1  0.42778517  0.49382963  0.42252064  1
  O  O209  1  0.92793102  0.49652518  0.42204581  1
  O  O210  1  0.17549688  0.47872647  0.07912227  1
  O  O211  1  0.67575955  0.48064111  0.07766248  1
  O  O212  1  0.07760485  0.65351879  0.07731027  1
  O  O213  1  0.57856563  0.66002231  0.07656392  1
  O  O214  1  0.26035964  0.87100937  0.07797854  1
  O  O215  1  0.76327008  0.87007976  0.07814575  1
  O  O216  1  0.17667474  0.87244060  0.57889495  1
  O  O217  1  0.67632661  0.87190754  0.57892889  1
  O  O218  1  0.26053506  0.65113592  0.57703530  1
  O  O219  1  0.76061680  0.65311774  0.57830890  1
  O  O220  1  0.07790625  0.49727476  0.57714628  1
  O  O221  1  0.57915369  0.49853485  0.57597194  1
  O  O222  1  0.15085653  0.80991730  0.25836038  1
  O  O223  1  0.65194661  0.81638308  0.25578143  1
  O  O224  1  0.25998397  0.69790881  0.25696050  1
  O  O225  1  0.76393265  0.69383015  0.25328028  1
  O  O226  1  0.08603609  0.47224845  0.25314695  1
  O  O227  1  0.59725714  0.49000893  0.25970371  1
  O  O228  1  0.15400222  0.48969502  0.75626019  1
  O  O229  1  0.65410690  0.49002725  0.75641850  1
  O  O230  1  0.09685385  0.70432930  0.75987772  1
  O  O231  1  0.59698390  0.70481811  0.75994816  1
  O  O232  1  0.26355215  0.82923515  0.75449744  1
  O  O233  1  0.76370838  0.82926699  0.75459859  1
