# generated using pymatgen
data_BiPt2Pb
_symmetry_space_group_name_H-M   'P 1'
_cell_length_a   4.36272083
_cell_length_b   4.36250256
_cell_length_c   5.52422409
_cell_angle_alpha   90.00000024
_cell_angle_beta   89.99999921
_cell_angle_gamma   60.00166802
_symmetry_Int_Tables_number   1
_chemical_formula_structural   BiPt2Pb
_chemical_formula_sum   'Bi1 Pt2 Pb1'
_cell_volume   91.05469345
_cell_formula_units_Z   1
loop_
 _symmetry_equiv_pos_site_id
 _symmetry_equiv_pos_as_xyz
  1  'x, y, z'
loop_
 _atom_site_type_symbol
 _atom_site_label
 _atom_site_symmetry_multiplicity
 _atom_site_fract_x
 _atom_site_fract_y
 _atom_site_fract_z
 _atom_site_occupancy
  Bi  Bi0  1  0.33336946  0.33331573  0.74999961  1
  Pt  Pt1  1  0.99999460  0.00000271  0.49981149  1
  Pt  Pt2  1  0.99999462  0.00000270  0.00018830  1
  Pb  Pb3  1  0.66664232  0.66667886  0.25000060  1
