# generated using pymatgen
data_ZrZn16
_symmetry_space_group_name_H-M   'P 1'
_cell_length_a   6.88100809
_cell_length_b   6.88100835
_cell_length_c   11.62178024
_cell_angle_alpha   90.00000000
_cell_angle_beta   90.00000000
_cell_angle_gamma   112.34495969
_symmetry_Int_Tables_number   1
_chemical_formula_structural   ZrZn16
_chemical_formula_sum   'Zr2 Zn32'
_cell_volume   508.95229196
_cell_formula_units_Z   2
loop_
 _symmetry_equiv_pos_site_id
 _symmetry_equiv_pos_as_xyz
  1  'x, y, z'
loop_
 _atom_site_type_symbol
 _atom_site_label
 _atom_site_symmetry_multiplicity
 _atom_site_fract_x
 _atom_site_fract_y
 _atom_site_fract_z
 _atom_site_occupancy
  Zr  Zr0  1  0.04697807  0.95302193  0.75000000  1
  Zr  Zr1  1  0.95302193  0.04697807  0.25000000  1
  Zn  Zn2  1  0.35487204  0.98399191  0.93227951  1
  Zn  Zn3  1  0.64512796  0.01600809  0.43227951  1
  Zn  Zn4  1  0.98399191  0.35487204  0.06772049  1
  Zn  Zn5  1  0.01600809  0.64512796  0.56772049  1
  Zn  Zn6  1  0.64512796  0.01600809  0.06772049  1
  Zn  Zn7  1  0.35487204  0.98399191  0.56772049  1
  Zn  Zn8  1  0.01600809  0.64512796  0.93227951  1
  Zn  Zn9  1  0.98399191  0.35487204  0.43227951  1
  Zn  Zn10  1  0.64720316  0.75054228  0.86617098  1
  Zn  Zn11  1  0.35279684  0.24945772  0.36617098  1
  Zn  Zn12  1  0.75054228  0.64720316  0.13382902  1
  Zn  Zn13  1  0.24945772  0.35279684  0.63382902  1
  Zn  Zn14  1  0.35279684  0.24945772  0.13382902  1
  Zn  Zn15  1  0.64720316  0.75054228  0.63382902  1
  Zn  Zn16  1  0.24945772  0.35279684  0.86617098  1
  Zn  Zn17  1  0.75054228  0.64720316  0.36617098  1
  Zn  Zn18  1  0.48390765  0.19063786  0.75000000  1
  Zn  Zn19  1  0.51609235  0.80936214  0.25000000  1
  Zn  Zn20  1  0.19063786  0.48390765  0.25000000  1
  Zn  Zn21  1  0.80936214  0.51609235  0.75000000  1
  Zn  Zn22  1  0.17728539  0.82271461  0.36112999  1
  Zn  Zn23  1  0.82271461  0.17728539  0.86112999  1
  Zn  Zn24  1  0.82271461  0.17728539  0.63887001  1
  Zn  Zn25  1  0.17728539  0.82271461  0.13887001  1
  Zn  Zn26  1  0.62254487  0.37745513  0.96968500  1
  Zn  Zn27  1  0.37745513  0.62254487  0.46968500  1
  Zn  Zn28  1  0.37745513  0.62254487  0.03031500  1
  Zn  Zn29  1  0.62254487  0.37745513  0.53031500  1
  Zn  Zn30  1  0.29364029  0.70635971  0.75000000  1
  Zn  Zn31  1  0.70635971  0.29364029  0.25000000  1
  Zn  Zn32  1  -0.00000000  0.00000000  -0.00000000  1
  Zn  Zn33  1  -0.00000000  0.00000000  0.50000000  1
