# generated using pymatgen
data_Na2MgNb2O6
_symmetry_space_group_name_H-M   'P 1'
_cell_length_a   5.37576657
_cell_length_b   5.37576657
_cell_length_c   6.24707548
_cell_angle_alpha   64.51577479
_cell_angle_beta   64.51577479
_cell_angle_gamma   60.00001762
_symmetry_Int_Tables_number   1
_chemical_formula_structural   Na2MgNb2O6
_chemical_formula_sum   'Na2 Mg1 Nb2 O6'
_cell_volume   135.68550596
_cell_formula_units_Z   1
loop_
 _symmetry_equiv_pos_site_id
 _symmetry_equiv_pos_as_xyz
  1  'x, y, z'
loop_
 _atom_site_type_symbol
 _atom_site_label
 _atom_site_symmetry_multiplicity
 _atom_site_fract_x
 _atom_site_fract_y
 _atom_site_fract_z
 _atom_site_occupancy
  Na  Na0  1  0.36799700  0.36799700  0.89600800  1
  Na  Na1  1  0.63200300  0.63200300  0.10399200  1
  Mg  Mg2  1  0.00000000  0.00000000  0.00000000  1
  Nb  Nb3  1  0.17608300  0.17608300  0.47175200  1
  Nb  Nb4  1  0.82391700  0.82391700  0.52824800  1
  O  O5  1  0.98443900  0.16767600  0.25626300  1
  O  O6  1  0.16767600  0.59162100  0.25626300  1
  O  O7  1  0.59162100  0.98443900  0.25626300  1
  O  O8  1  0.01556100  0.83232400  0.74373700  1
  O  O9  1  0.83232400  0.40837900  0.74373700  1
  O  O10  1  0.40837900  0.01556100  0.74373700  1
