# generated using pymatgen
data_MgCr3(SO4)6
_symmetry_space_group_name_H-M   'P 1'
_cell_length_a   8.99525564
_cell_length_b   9.00524688
_cell_length_c   9.09241055
_cell_angle_alpha   55.29005279
_cell_angle_beta   54.88836544
_cell_angle_gamma   55.39751785
_symmetry_Int_Tables_number   1
_chemical_formula_structural   MgCr3(SO4)6
_chemical_formula_sum   'Mg1 Cr3 S6 O24'
_cell_volume   462.56401807
_cell_formula_units_Z   1
loop_
 _symmetry_equiv_pos_site_id
 _symmetry_equiv_pos_as_xyz
  1  'x, y, z'
loop_
 _atom_site_type_symbol
 _atom_site_label
 _atom_site_symmetry_multiplicity
 _atom_site_fract_x
 _atom_site_fract_y
 _atom_site_fract_z
 _atom_site_occupancy
  Mg  Mg0  1  0.34383500  0.83621200  0.17762300  1
  Cr  Cr1  1  0.35468500  0.34847600  0.35385400  1
  Cr  Cr2  1  0.65065000  0.63740000  0.64552100  1
  Cr  Cr3  1  0.84361800  0.84778100  0.85265900  1
  S  S4  1  0.03946600  0.72999200  0.48054200  1
  S  S5  1  0.47974200  0.03601100  0.72507100  1
  S  S6  1  0.73100800  0.47849100  0.03813400  1
  S  S7  1  0.24741600  0.53981000  0.96741900  1
  S  S8  1  0.55783100  0.94805900  0.24988600  1
  S  S9  1  0.96192500  0.24505100  0.54340100  1
  O  O10  1  0.11821100  0.27472000  0.52805100  1
  O  O11  1  0.27331000  0.53117600  0.12179200  1
  O  O12  1  0.03530300  0.92349000  0.33622500  1
  O  O13  1  0.51506700  0.11206300  0.28453600  1
  O  O14  1  0.01321000  0.70326500  0.66978900  1
  O  O15  1  0.24918500  0.60006900  0.39416500  1
  O  O16  1  0.39532700  0.23225100  0.60008600  1
  O  O17  1  0.33518800  0.99856300  0.92271200  1
  O  O18  1  0.60246300  0.38828600  0.23485300  1
  O  O19  1  0.04480600  0.67457800  0.97975800  1
  O  O20  1  0.29062200  0.35031400  0.98357200  1
  O  O21  1  0.37803100  0.94273900  0.28718600  1
  O  O22  1  0.65666600  0.02720500  0.71469200  1
  O  O23  1  0.66886300  0.68248200  0.03420800  1
  O  O24  1  0.93287200  0.37133500  0.00187000  1
  O  O25  1  0.38170300  0.63152300  0.77196000  1
  O  O26  1  0.69165300  0.97654000  0.04430000  1
  O  O27  1  0.65816800  0.76088100  0.37486700  1
  O  O28  1  0.76668200  0.37111700  0.64515800  1
  O  O29  1  0.96644200  0.29794700  0.35716100  1
  O  O30  1  0.53236500  0.89808300  0.64812300  1
  O  O31  1  0.98279300  0.03976300  0.67186100  1
  O  O32  1  0.66327800  0.51305600  0.90127200  1
  O  O33  1  0.91139800  0.66077400  0.50291100  1
