# generated using pymatgen
data_CsSbSI2
_symmetry_space_group_name_H-M   'P 1'
_cell_length_a   11.52643100
_cell_length_b   11.46993100
_cell_length_c   12.35774400
_cell_angle_alpha   90.00000000
_cell_angle_beta   90.00000000
_cell_angle_gamma   90.00000000
_symmetry_Int_Tables_number   1
_chemical_formula_structural   CsSbSI2
_chemical_formula_sum   'Cs8 Sb8 S8 I16'
_cell_volume   1633.78481170
_cell_formula_units_Z   8
loop_
 _symmetry_equiv_pos_site_id
 _symmetry_equiv_pos_as_xyz
  1  'x, y, z'
loop_
 _atom_site_type_symbol
 _atom_site_label
 _atom_site_symmetry_multiplicity
 _atom_site_fract_x
 _atom_site_fract_y
 _atom_site_fract_z
 _atom_site_occupancy
  Cs  Cs0  1  0.00000000  0.25750100  0.25000000  1
  Cs  Cs1  1  0.00000000  0.74249900  0.25000000  1
  Cs  Cs2  1  0.00000000  0.74249900  0.75000000  1
  Cs  Cs3  1  0.00000000  0.25750100  0.75000000  1
  Cs  Cs4  1  0.50000000  0.75750100  0.25000000  1
  Cs  Cs5  1  0.50000000  0.24249900  0.25000000  1
  Cs  Cs6  1  0.50000000  0.24249900  0.75000000  1
  Cs  Cs7  1  0.50000000  0.75750100  0.75000000  1
  Sb  Sb8  1  0.21718800  0.96984100  0.00000000  1
  Sb  Sb9  1  0.21718800  0.03015900  0.50000000  1
  Sb  Sb10  1  0.78281200  0.96984100  0.50000000  1
  Sb  Sb11  1  0.78281200  0.03015900  0.00000000  1
  Sb  Sb12  1  0.71718800  0.46984100  0.00000000  1
  Sb  Sb13  1  0.71718800  0.53015900  0.50000000  1
  Sb  Sb14  1  0.28281200  0.46984100  0.50000000  1
  Sb  Sb15  1  0.28281200  0.53015900  0.00000000  1
  S  S16  1  0.25000000  0.75000000  0.00000000  1
  S  S17  1  0.25000000  0.25000000  0.50000000  1
  S  S18  1  0.75000000  0.75000000  0.50000000  1
  S  S19  1  0.75000000  0.25000000  0.00000000  1
  S  S20  1  0.00000000  0.00000000  0.00000000  1
  S  S21  1  0.00000000  0.00000000  0.50000000  1
  S  S22  1  0.50000000  0.50000000  0.00000000  1
  S  S23  1  0.50000000  0.50000000  0.50000000  1
  I  I24  1  0.00000000  0.50000000  0.00000000  1
  I  I25  1  0.00000000  0.50000000  0.50000000  1
  I  I26  1  0.50000000  0.00000000  0.00000000  1
  I  I27  1  0.50000000  0.00000000  0.50000000  1
  I  I28  1  0.23835800  0.00000000  0.25000000  1
  I  I29  1  0.76164200  0.00000000  0.25000000  1
  I  I30  1  0.76164200  0.00000000  0.75000000  1
  I  I31  1  0.23835800  0.00000000  0.75000000  1
  I  I32  1  0.73835800  0.50000000  0.25000000  1
  I  I33  1  0.26164200  0.50000000  0.25000000  1
  I  I34  1  0.26164200  0.50000000  0.75000000  1
  I  I35  1  0.73835800  0.50000000  0.75000000  1
  I  I36  1  0.25000000  0.25000000  0.00000000  1
  I  I37  1  0.25000000  0.75000000  0.50000000  1
  I  I38  1  0.75000000  0.25000000  0.50000000  1
  I  I39  1  0.75000000  0.75000000  0.00000000  1
