# generated using pymatgen
data_Mg4AlB10
_symmetry_space_group_name_H-M   'P 1'
_cell_length_a   3.05073572
_cell_length_b   3.05073572
_cell_length_c   17.26380362
_cell_angle_alpha   90.00000000
_cell_angle_beta   90.00000000
_cell_angle_gamma   120.00001558
_symmetry_Int_Tables_number   1
_chemical_formula_structural   Mg4AlB10
_chemical_formula_sum   'Mg4 Al1 B10'
_cell_volume   139.14776160
_cell_formula_units_Z   1
loop_
 _symmetry_equiv_pos_site_id
 _symmetry_equiv_pos_as_xyz
  1  'x, y, z'
loop_
 _atom_site_type_symbol
 _atom_site_label
 _atom_site_symmetry_multiplicity
 _atom_site_fract_x
 _atom_site_fract_y
 _atom_site_fract_z
 _atom_site_occupancy
  Mg  Mg0  1  -0.00000000  0.00000000  0.80449012  1
  Mg  Mg1  1  -0.00000000  0.00000000  0.60171754  1
  Mg  Mg2  1  -0.00000000  0.00000000  0.39828246  1
  Mg  Mg3  1  -0.00000000  0.00000000  0.19550988  1
  Al  Al4  1  -0.00000000  0.00000000  -0.00000000  1
  B  B5  1  0.66666700  0.33333300  0.90925265  1
  B  B6  1  0.66666700  0.33333300  0.70398161  1
  B  B7  1  0.66666700  0.33333300  0.50000000  1
  B  B8  1  0.66666700  0.33333300  0.29601839  1
  B  B9  1  0.66666700  0.33333300  0.09074735  1
  B  B10  1  0.33333300  0.66666700  0.90925265  1
  B  B11  1  0.33333300  0.66666700  0.70398161  1
  B  B12  1  0.33333300  0.66666700  0.50000000  1
  B  B13  1  0.33333300  0.66666700  0.29601839  1
  B  B14  1  0.33333300  0.66666700  0.09074735  1
