# generated using pymatgen
data_Na2MgMn4O8
_symmetry_space_group_name_H-M   'P 1'
_cell_length_a   3.22847362
_cell_length_b   5.68926772
_cell_length_c   10.33615800
_cell_angle_alpha   89.55074798
_cell_angle_beta   90.35011879
_cell_angle_gamma   68.74899930
_symmetry_Int_Tables_number   1
_chemical_formula_structural   Na2MgMn4O8
_chemical_formula_sum   'Na2 Mg1 Mn4 O8'
_cell_volume   176.92776534
_cell_formula_units_Z   1
loop_
 _symmetry_equiv_pos_site_id
 _symmetry_equiv_pos_as_xyz
  1  'x, y, z'
loop_
 _atom_site_type_symbol
 _atom_site_label
 _atom_site_symmetry_multiplicity
 _atom_site_fract_x
 _atom_site_fract_y
 _atom_site_fract_z
 _atom_site_occupancy
  Na  Na0  1  0.19312700  0.35286200  0.21180300  1
  Na  Na1  1  0.90789400  0.69948500  0.76360900  1
  Mg  Mg2  1  0.88241400  0.86781100  0.25777700  1
  Mn  Mn3  1  0.64122800  0.22329800  0.91574500  1
  Mn  Mn4  1  0.45528300  0.75469800  0.48345700  1
  Mn  Mn5  1  0.59406100  0.21148400  0.58667100  1
  Mn  Mn6  1  0.44196000  0.77877500  0.03689000  1
  O  O7  1  0.19603500  0.97272800  0.62265100  1
  O  O8  1  0.25290000  0.98379900  0.88513300  1
  O  O9  1  0.64399700  0.02606500  0.41775200  1
  O  O10  1  0.70924300  0.04077000  0.09167000  1
  O  O11  1  0.50649500  0.66854700  0.23304800  1
  O  O12  1  0.58126100  0.37324700  0.74759200  1
  O  O13  1  0.13781400  0.52570900  0.50653600  1
  O  O14  1  0.16938100  0.53322200  0.98961700  1
