# generated using pymatgen
data_MgSc4(Si2O7)2
_symmetry_space_group_name_H-M   'P 1'
_cell_length_a   7.11440498
_cell_length_b   7.11440494
_cell_length_c   6.25834000
_cell_angle_alpha   63.90658592
_cell_angle_beta   63.90658607
_cell_angle_gamma   66.43671859
_symmetry_Int_Tables_number   1
_chemical_formula_structural   MgSc4(Si2O7)2
_chemical_formula_sum   'Mg1 Sc4 Si4 O14'
_cell_volume   246.98513772
_cell_formula_units_Z   1
loop_
 _symmetry_equiv_pos_site_id
 _symmetry_equiv_pos_as_xyz
  1  'x, y, z'
loop_
 _atom_site_type_symbol
 _atom_site_label
 _atom_site_symmetry_multiplicity
 _atom_site_fract_x
 _atom_site_fract_y
 _atom_site_fract_z
 _atom_site_occupancy
  Mg  Mg0  1  0.67125300  0.67125300  0.57874700  1
  Sc  Sc1  1  0.96839400  0.49205700  0.01977500  1
  Sc  Sc2  1  0.49205700  0.96839400  0.01977500  1
  Sc  Sc3  1  0.00169000  0.00169000  0.48483100  1
  Sc  Sc4  1  0.00169000  0.00169000  0.01178800  1
  Si  Si5  1  0.43811400  0.04535000  0.50826800  1
  Si  Si6  1  0.04535000  0.43811400  0.50826800  1
  Si  Si7  1  0.45773200  0.45773200  0.05859400  1
  Si  Si8  1  0.45773200  0.45773200  0.52594300  1
  O  O9  1  0.43510200  0.85266400  0.80344800  1
  O  O10  1  0.19047200  0.53290200  0.59211000  1
  O  O11  1  0.85266400  0.43510200  0.80344800  1
  O  O12  1  0.86241900  0.86241900  0.38758100  1
  O  O13  1  0.47380100  0.47380100  0.77619900  1
  O  O14  1  0.43510200  0.85266400  0.40878500  1
  O  O15  1  0.19047200  0.53290200  0.18451600  1
  O  O16  1  0.53290200  0.19047200  0.59211000  1
  O  O17  1  0.16126000  0.16126000  0.08874000  1
  O  O18  1  0.86052200  0.86052200  0.88947800  1
  O  O19  1  0.85266400  0.43510200  0.40878500  1
  O  O20  1  0.54910700  0.54910700  0.20089300  1
  O  O21  1  0.16659700  0.16659700  0.58340300  1
  O  O22  1  0.53290200  0.19047200  0.18451600  1
