# generated using pymatgen
data_MgV8Zn4O16
_symmetry_space_group_name_H-M   'P 1'
_cell_length_a   3.12995138
_cell_length_b   10.83027136
_cell_length_c   10.04575331
_cell_angle_alpha   95.69303040
_cell_angle_beta   83.27940035
_cell_angle_gamma   90.81393090
_symmetry_Int_Tables_number   1
_chemical_formula_structural   MgV8Zn4O16
_chemical_formula_sum   'Mg1 V8 Zn4 O16'
_cell_volume   336.52400657
_cell_formula_units_Z   1
loop_
 _symmetry_equiv_pos_site_id
 _symmetry_equiv_pos_as_xyz
  1  'x, y, z'
loop_
 _atom_site_type_symbol
 _atom_site_label
 _atom_site_symmetry_multiplicity
 _atom_site_fract_x
 _atom_site_fract_y
 _atom_site_fract_z
 _atom_site_occupancy
  Mg  Mg0  1  0.89503184  0.18957510  0.98778931  1
  V  V1  1  0.63971821  0.57625812  0.37227653  1
  V  V2  1  0.79864426  0.03356911  0.17259449  1
  V  V3  1  0.06583210  0.08352976  0.62903935  1
  V  V4  1  0.84228330  0.43068872  0.09691100  1
  V  V5  1  0.05670451  0.44370892  0.58932414  1
  V  V6  1  0.65129502  0.91538949  0.41244827  1
  V  V7  1  0.42825353  0.93294913  0.90691531  1
  V  V8  1  0.50416349  0.61946609  0.88120498  1
  Zn  Zn9  1  0.17995625  0.77555147  0.17202796  1
  Zn  Zn10  1  0.28561855  0.30698748  0.30723164  1
  Zn  Zn11  1  0.04459174  0.75516751  0.64783155  1
  Zn  Zn12  1  0.49476988  0.32737253  0.78738187  1
  O  O13  1  0.10374703  0.89294642  0.53975814  1
  O  O14  1  0.61185718  0.08710007  0.51870494  1
  O  O15  1  0.23076425  0.95510975  0.28108883  1
  O  O16  1  0.91118322  0.86631861  0.02446032  1
  O  O17  1  0.96239764  0.59173598  0.98740904  1
  O  O18  1  0.82383484  0.24523374  0.20527137  1
  O  O19  1  0.36650743  0.07912651  0.04131231  1
  O  O20  1  0.03431520  0.27588396  0.67875461  1
  O  O21  1  0.25852214  0.49721837  0.24146107  1
  O  O22  1  0.94407280  0.03000270  0.81348155  1
  O  O23  1  0.07527765  0.60983229  0.50795909  1
  O  O24  1  0.49302370  0.76651803  0.77905758  1
  O  O25  1  0.65226523  0.73653944  0.29124704  1
  O  O26  1  0.53051566  0.50013387  0.72148980  1
  O  O27  1  0.39535920  0.32396644  0.97705769  1
  O  O28  1  0.57366213  0.40211542  0.45975822  1
