# generated using pymatgen
data_Rb4Sn21Hg2
_symmetry_space_group_name_H-M   'P 1'
_cell_length_a   12.32102701
_cell_length_b   12.32102701
_cell_length_c   12.31728664
_cell_angle_alpha   90.00000000
_cell_angle_beta   90.00000000
_cell_angle_gamma   90.03492832
_symmetry_Int_Tables_number   1
_chemical_formula_structural   Rb4Sn21Hg2
_chemical_formula_sum   'Rb8 Sn42 Hg4'
_cell_volume   1869.85868857
_cell_formula_units_Z   2
loop_
 _symmetry_equiv_pos_site_id
 _symmetry_equiv_pos_as_xyz
  1  'x, y, z'
loop_
 _atom_site_type_symbol
 _atom_site_label
 _atom_site_symmetry_multiplicity
 _atom_site_fract_x
 _atom_site_fract_y
 _atom_site_fract_z
 _atom_site_occupancy
  Rb  Rb0  1  0.49908238  0.99888792  0.25000000  1
  Rb  Rb1  1  0.00111208  0.50091762  0.75000000  1
  Rb  Rb2  1  0.01313017  0.98686983  0.50000000  1
  Rb  Rb3  1  0.74051623  0.51133648  0.25000000  1
  Rb  Rb4  1  0.48866352  0.25948377  0.75000000  1
  Rb  Rb5  1  0.01313017  0.98686983  0.00000000  1
  Rb  Rb6  1  0.25891609  0.51188357  0.25000000  1
  Rb  Rb7  1  0.48811643  0.74108391  0.75000000  1
  Sn  Sn8  1  0.61602654  0.99987103  0.55668631  1
  Sn  Sn9  1  0.80765877  0.11556398  0.25000000  1
  Sn  Sn10  1  0.49992762  0.31409342  0.36761820  1
  Sn  Sn11  1  0.37976592  0.00005191  0.93573640  1
  Sn  Sn12  1  0.18758922  0.87967729  0.25000000  1
  Sn  Sn13  1  0.49986372  0.68834993  0.13167438  1
  Sn  Sn14  1  0.19389635  0.11640216  0.25000000  1
  Sn  Sn15  1  0.49992762  0.31409342  0.13238180  1
  Sn  Sn16  1  0.81537459  0.88039974  0.25000000  1
  Sn  Sn17  1  0.49986372  0.68834993  0.36832562  1
  Sn  Sn18  1  0.37976592  0.00005191  0.56426360  1
  Sn  Sn19  1  0.61602654  0.99987103  0.94331369  1
  Sn  Sn20  1  0.68590658  0.50007238  0.63238180  1
  Sn  Sn21  1  -0.00005191  0.62023408  0.43573640  1
  Sn  Sn22  1  0.88359784  0.80610365  0.75000000  1
  Sn  Sn23  1  0.31165007  0.50013628  0.86832562  1
  Sn  Sn24  1  0.00012897  0.38397346  0.05668631  1
  Sn  Sn25  1  0.11960026  0.18462541  0.75000000  1
  Sn  Sn26  1  -0.00005191  0.62023408  0.06426360  1
  Sn  Sn27  1  0.12032271  0.81241078  0.75000000  1
  Sn  Sn28  1  0.00012897  0.38397346  0.44331369  1
  Sn  Sn29  1  0.88443602  0.19234123  0.75000000  1
  Sn  Sn30  1  0.68590658  0.50007238  0.86761820  1
  Sn  Sn31  1  0.31165007  0.50013628  0.63167438  1
  Sn  Sn32  1  0.68246054  0.18545613  0.43279079  1
  Sn  Sn33  1  0.31771834  0.81777462  0.06698394  1
  Sn  Sn34  1  0.31886599  0.18395691  0.06561489  1
  Sn  Sn35  1  0.68418235  0.81634049  0.43161220  1
  Sn  Sn36  1  0.31771834  0.81777462  0.43301606  1
  Sn  Sn37  1  0.68246054  0.18545613  0.06720921  1
  Sn  Sn38  1  0.68418235  0.81634049  0.06838780  1
  Sn  Sn39  1  0.31886599  0.18395691  0.43438511  1
  Sn  Sn40  1  0.81604309  0.68113401  0.56561489  1
  Sn  Sn41  1  0.18365951  0.31581765  0.93161220  1
  Sn  Sn42  1  0.18222538  0.68228166  0.93301606  1
  Sn  Sn43  1  0.81454387  0.31753946  0.56720921  1
  Sn  Sn44  1  0.81454387  0.31753946  0.93279079  1
  Sn  Sn45  1  0.18222538  0.68228166  0.56698394  1
  Sn  Sn46  1  0.18365951  0.31581765  0.56838780  1
  Sn  Sn47  1  0.81604309  0.68113401  0.93438511  1
  Sn  Sn48  1  0.74977659  -0.00028803  0.75000000  1
  Sn  Sn49  1  0.00028803  0.25022341  0.25000000  1
  Hg  Hg50  1  0.49911483  0.50088517  0.50000000  1
  Hg  Hg51  1  0.24971415  0.99898241  0.75000000  1
  Hg  Hg52  1  0.00101759  0.75028585  0.25000000  1
  Hg  Hg53  1  0.49911483  0.50088517  0.00000000  1
