# generated using pymatgen
data_Mg2CdRh
_symmetry_space_group_name_H-M   'P 1'
_cell_length_a   11.22936306
_cell_length_b   12.59040712
_cell_length_c   12.59040702
_cell_angle_alpha   60.98335774
_cell_angle_beta   63.51591498
_cell_angle_gamma   63.51591487
_symmetry_Int_Tables_number   1
_chemical_formula_structural   Mg2CdRh
_chemical_formula_sum   'Mg2 Cd1 Rh1'
_cell_volume   1331.95815515
_cell_formula_units_Z   1
loop_
 _symmetry_equiv_pos_site_id
 _symmetry_equiv_pos_as_xyz
  1  'x, y, z'
loop_
 _atom_site_type_symbol
 _atom_site_label
 _atom_site_symmetry_multiplicity
 _atom_site_fract_x
 _atom_site_fract_y
 _atom_site_fract_z
 _atom_site_occupancy
  Mg  Mg0  1  0.77670657  0.00000000  0.00000000  1
  Mg  Mg1  1  0.22329343  1.00000000  1.00000000  1
  Cd  Cd2  1  0.50000000  0.00000000  -0.00000000  1
  Rh  Rh3  1  0.00000000  0.00000000  -0.00000000  1
