# generated using pymatgen
data_MgMn6(OF2)4
_symmetry_space_group_name_H-M   'P 1'
_cell_length_a   5.30340774
_cell_length_b   8.03750096
_cell_length_c   5.67783079
_cell_angle_alpha   91.17807209
_cell_angle_beta   95.38871773
_cell_angle_gamma   84.53706938
_symmetry_Int_Tables_number   1
_chemical_formula_structural   MgMn6(OF2)4
_chemical_formula_sum   'Mg1 Mn6 O4 F8'
_cell_volume   239.84350619
_cell_formula_units_Z   1
loop_
 _symmetry_equiv_pos_site_id
 _symmetry_equiv_pos_as_xyz
  1  'x, y, z'
loop_
 _atom_site_type_symbol
 _atom_site_label
 _atom_site_symmetry_multiplicity
 _atom_site_fract_x
 _atom_site_fract_y
 _atom_site_fract_z
 _atom_site_occupancy
  Mg  Mg0  1  0.02714600  0.16761100  0.69972100  1
  Mn  Mn1  1  0.49815500  0.99743100  0.52233300  1
  Mn  Mn2  1  0.53061300  0.67014100  0.14137200  1
  Mn  Mn3  1  0.50277000  0.35352200  0.82306000  1
  Mn  Mn4  1  0.96269700  0.68532600  0.65858500  1
  Mn  Mn5  1  0.04110200  0.36654800  0.28922500  1
  Mn  Mn6  1  0.90906000  0.91899500  0.13653100  1
  O  O7  1  0.74843700  0.76108800  0.89740600  1
  O  O8  1  0.73181900  0.78743100  0.40445900  1
  O  O9  1  0.68771300  0.45528100  0.12503200  1
  O  O10  1  0.31482200  0.23658000  0.53943900  1
  F  F11  1  0.84636800  0.40924900  0.64288200  1
  F  F12  1  0.84002700  0.12103300  0.37239800  1
  F  F13  1  0.73325700  0.10694100  0.85564000  1
  F  F14  1  0.24960800  0.58685200  0.89276800  1
  F  F15  1  0.30496800  0.89074200  0.18142700  1
  F  F16  1  0.19321500  0.59824400  0.40489400  1
  F  F17  1  0.19701600  0.23708800  0.00568500  1
  F  F18  1  0.16731400  0.92489400  0.68839400  1
