# generated using pymatgen
data_MgMn6(OF)6
_symmetry_space_group_name_H-M   'P 1'
_cell_length_a   5.32074730
_cell_length_b   14.67543243
_cell_length_c   3.05843045
_cell_angle_alpha   90.82974207
_cell_angle_beta   89.69827971
_cell_angle_gamma   94.31418235
_symmetry_Int_Tables_number   1
_chemical_formula_structural   MgMn6(OF)6
_chemical_formula_sum   'Mg1 Mn6 O6 F6'
_cell_volume   238.11156853
_cell_formula_units_Z   1
loop_
 _symmetry_equiv_pos_site_id
 _symmetry_equiv_pos_as_xyz
  1  'x, y, z'
loop_
 _atom_site_type_symbol
 _atom_site_label
 _atom_site_symmetry_multiplicity
 _atom_site_fract_x
 _atom_site_fract_y
 _atom_site_fract_z
 _atom_site_occupancy
  Mg  Mg0  1  0.83878491  0.83568033  0.93549446  1
  Mn  Mn1  1  0.95939015  0.02635490  0.98767328  1
  Mn  Mn2  1  0.13603786  0.32456609  0.01115367  1
  Mn  Mn3  1  0.05845976  0.62953456  0.00578419  1
  Mn  Mn4  1  0.54763027  0.17450321  0.51108417  1
  Mn  Mn5  1  0.58090794  0.48452479  0.50863255  1
  Mn  Mn6  1  0.31821911  0.83905535  0.44662375  1
  O  O7  1  0.27718288  0.26158879  0.51607122  1
  O  O8  1  0.01940764  0.93145414  0.46964735  1
  O  O9  1  0.14752557  0.76748625  0.94214222  1
  O  O10  1  0.41090280  0.42361935  0.00665172  1
  O  O11  1  0.74583067  0.55009681  0.01116961  1
  O  O12  1  0.82794721  0.08914134  0.49432409  1
  F  F13  1  0.27635759  0.58845362  0.50010439  1
  F  F14  1  0.34671878  0.09860957  0.00676727  1
  F  F15  1  0.75302988  0.24306122  0.01206601  1
  F  F16  1  0.54057579  0.90941963  0.94906238  1
  F  F17  1  0.95544397  0.38638679  0.50454006  1
  F  F18  1  0.67631622  0.76979625  0.43100561  1
