# generated using pymatgen
data_Sr2MgTi6N2O11
_symmetry_space_group_name_H-M   'P 1'
_cell_length_a   3.86702500
_cell_length_b   7.93008536
_cell_length_c   9.47938534
_cell_angle_alpha   82.39344641
_cell_angle_beta   89.99922139
_cell_angle_gamma   75.88324941
_symmetry_Int_Tables_number   1
_chemical_formula_structural   Sr2MgTi6N2O11
_chemical_formula_sum   'Sr2 Mg1 Ti6 N2 O11'
_cell_volume   279.27633414
_cell_formula_units_Z   1
loop_
 _symmetry_equiv_pos_site_id
 _symmetry_equiv_pos_as_xyz
  1  'x, y, z'
loop_
 _atom_site_type_symbol
 _atom_site_label
 _atom_site_symmetry_multiplicity
 _atom_site_fract_x
 _atom_site_fract_y
 _atom_site_fract_z
 _atom_site_occupancy
  Sr  Sr0  1  0.54684000  0.90363100  0.79949900  1
  Sr  Sr1  1  0.45902600  0.07880900  0.27994700  1
  Mg  Mg2  1  0.28447400  0.42802700  0.03841700  1
  Ti  Ti3  1  0.11209200  0.77274800  0.11102000  1
  Ti  Ti4  1  0.17293100  0.65101600  0.41468400  1
  Ti  Ti5  1  0.22487200  0.54723500  0.73863900  1
  Ti  Ti6  1  0.76302800  0.47086600  0.25630700  1
  Ti  Ti7  1  0.83443300  0.32816600  0.57552200  1
  Ti  Ti8  1  0.88290500  0.23122200  0.91282500  1
  N  N9  1  0.23265800  0.53158700  0.22904700  1
  N  N10  1  0.83541900  0.32612700  0.08736200  1
  O  O11  1  0.06049200  0.87592700  0.29819500  1
  O  O12  1  0.12486300  0.74703200  0.61613000  1
  O  O13  1  0.17079500  0.65535000  0.90768000  1
  O  O14  1  0.61524600  0.76639700  0.11071800  1
  O  O15  1  0.69655900  0.60379500  0.43544500  1
  O  O16  1  0.75968000  0.47764300  0.74665400  1
  O  O17  1  0.29851900  0.39997200  0.56623000  1
  O  O18  1  0.35945700  0.27807800  0.87667100  1
  O  O19  1  0.87061600  0.25566700  0.38888700  1
  O  O20  1  0.93476200  0.12756100  0.69203600  1
  O  O21  1  0.00099500  0.99482500  0.97278300  1
