# generated using pymatgen
data_Tm4MgTi2O10
_symmetry_space_group_name_H-M   'P 1'
_cell_length_a   4.09741492
_cell_length_b   5.87313322
_cell_length_c   10.52507400
_cell_angle_alpha   90.00000000
_cell_angle_beta   90.00000000
_cell_angle_gamma   68.39097572
_symmetry_Int_Tables_number   1
_chemical_formula_structural   Tm4MgTi2O10
_chemical_formula_sum   'Tm4 Mg1 Ti2 O10'
_cell_volume   235.48129954
_cell_formula_units_Z   1
loop_
 _symmetry_equiv_pos_site_id
 _symmetry_equiv_pos_as_xyz
  1  'x, y, z'
loop_
 _atom_site_type_symbol
 _atom_site_label
 _atom_site_symmetry_multiplicity
 _atom_site_fract_x
 _atom_site_fract_y
 _atom_site_fract_z
 _atom_site_occupancy
  Tm  Tm0  1  0.13193200  0.72709300  0.92791600  1
  Tm  Tm1  1  0.13193200  0.72709300  0.57208400  1
  Tm  Tm2  1  0.86807900  0.28973200  0.06182700  1
  Tm  Tm3  1  0.86807900  0.28973200  0.43817300  1
  Mg  Mg4  1  0.58351800  0.94830500  0.25000000  1
  Ti  Ti5  1  0.21805000  0.57482400  0.25000000  1
  Ti  Ti6  1  0.78699500  0.36166800  0.75000000  1
  O  O7  1  0.99190000  0.90633400  0.37828400  1
  O  O8  1  0.99190000  0.90633400  0.12171600  1
  O  O9  1  0.70354600  0.59763100  0.90584100  1
  O  O10  1  0.70354600  0.59763100  0.59415900  1
  O  O11  1  0.28616900  0.46645400  0.75000000  1
  O  O12  1  0.71422000  0.57081000  0.25000000  1
  O  O13  1  0.29954600  0.42562400  0.07341500  1
  O  O14  1  0.29954600  0.42562400  0.42658500  1
  O  O15  1  0.95218800  0.11338800  0.62379800  1
  O  O16  1  0.95218800  0.11338800  0.87620200  1
